---- qbsp / ericw-tools v0.18.1 ----
Input file: commandcenter.map
Output file: commandcenter.bsp

---- LoadMapFile ----
         6889 faces
         1074 brushes
           50 entities
           17 unique texnames
          125 texinfo

Opened WAD: ../wads/prototype_1_2.wad
Opened WAD: ../wads/START.WAD
Processing hull 0...
---- Brush_LoadEntity ----
         1068 brushes
         1254 planes
---- CSGFaces ----
         6776 brushfaces
         6939 csgfaces
         5366 mergedfaces
---- SolidBSP ----
         6172 split nodes
         2306 solid leafs
         3747 empty leafs
          120 water leafs
            0 detail leafs
            0 detail illusionary leafs
            0 detail fence leafs
            0 illusionary visblocker leafs
        12096 leaffaces
        10263 nodefaces
---- Portalize ----
         3867 vis leafs
         3867 vis clusters
        11889 vis portals
---- FillOutside ----
         1460 outleafs
---- MergeAll ----
         4130 mergefaces
---- SolidBSP ----
         1894 split nodes
          759 solid leafs
         1068 empty leafs
           68 water leafs
            0 detail leafs
            0 detail illusionary leafs
            0 detail fence leafs
            0 illusionary visblocker leafs
         6152 leaffaces
         4483 nodefaces
---- Portalize ----
         1136 vis leafs
         1136 vis clusters
         3170 vis portals
---- Tjunc ----
         4550 world edges
        15766 edge points
         4747 edges added by tjunctions
            2 faces added by tjunctions
---- MakeFaceEdges ----
---- GrowRegions ----
Processing hull 1...
Processing hull 2...
*** WARNING 16: Texture __TB_empty not found
---- WriteBSPFile ----
Wrote commandcenter.bsp
         1714 planes            34280
         6104 vertexes          73248
         2001 nodes             48024
           77 texinfo            3080
         4584 faces             91680
         2608 clipnodes         20864
         1244 leafs             34832
         6253 marksurfaces      12506
        22508 surfedges         90032
        11263 edges             45052
           17 textures         257240
              lightdata             0
              visdata               0
              entdata            3470

1.135 seconds elapsed
Peak memory usage: 37068572 (35.4M)
