---- qbsp / ericw-tools v0.18.1 ----
Input file: commandcenter.map
Output file: commandcenter.bsp

---- LoadMapFile ----
        10304 faces
         1647 brushes
          200 entities
          121 unique texnames
          454 texinfo

Opened WAD: ../wads/prototype_1_2.wad
Opened WAD: ../wads/START.WAD
Opened WAD: ../wads/SiN.wad
Processing hull 0...
---- Brush_LoadEntity ----
         1643 brushes
         1403 planes
---- CSGFaces ----
        10229 brushfaces
         8835 csgfaces
         6346 mergedfaces
---- SolidBSP ----
         7862 split nodes
         2933 solid leafs
         4617 empty leafs
          313 water leafs
            0 detail leafs
            0 detail illusionary leafs
            0 detail fence leafs
            0 illusionary visblocker leafs
        15370 leaffaces
        13265 nodefaces
---- Portalize ----
         4930 vis leafs
         4930 vis clusters
        15193 vis portals
---- FillOutside ----
         1659 outleafs
---- MergeAll ----
         4837 mergefaces
---- SolidBSP ----
         2185 split nodes
          902 solid leafs
         1217 empty leafs
           67 water leafs
            0 detail leafs
            0 detail illusionary leafs
            0 detail fence leafs
            0 illusionary visblocker leafs
         7293 leaffaces
         5296 nodefaces
---- Portalize ----
         1284 vis leafs
         1284 vis clusters
         3380 vis portals
---- Tjunc ----
         5258 world edges
        18477 edge points
         5455 edges added by tjunctions
            2 faces added by tjunctions
---- MakeFaceEdges ----
---- GrowRegions ----
Processing hull 1...
Processing hull 2...
*** WARNING 16: Texture __TB_empty not found
---- WriteBSPFile ----
Wrote commandcenter.bsp
         1715 planes            34300
         7075 vertexes          84900
         2260 nodes             54240
          315 texinfo           12600
         5365 faces            107300
         2647 clipnodes         21176
         1360 leafs             38080
         7361 marksurfaces      14722
        26244 surfedges        104976
        13138 edges             52552
          121 textures        1140192
              lightdata             0
              visdata               0
              entdata           15472

1.449 seconds elapsed
Peak memory usage: 50185352 (47.9M)
