---- qbsp / ericw-tools v0.18.1 ----
Input file: commandcenter.map
Output file: commandcenter.bsp

---- LoadMapFile ----
         6990 faces
         1092 brushes
          210 entities
           17 unique texnames
          125 texinfo

Opened WAD: ../wads/prototype_1_2.wad
Opened WAD: ../wads/START.WAD
Processing hull 0...
---- Brush_LoadEntity ----
         1086 brushes
         1259 planes
---- CSGFaces ----
         6877 brushfaces
         6973 csgfaces
         5418 mergedfaces
---- SolidBSP ----
         6233 split nodes
         2329 solid leafs
         3785 empty leafs
          120 water leafs
            0 detail leafs
            0 detail illusionary leafs
            0 detail fence leafs
            0 illusionary visblocker leafs
        12190 leaffaces
        10352 nodefaces
---- Portalize ----
         3905 vis leafs
         3905 vis clusters
        12010 vis portals
---- FillOutside ----
         1489 outleafs
---- MergeAll ----
         4153 mergefaces
---- SolidBSP ----
         1916 split nodes
          804 solid leafs
         1054 empty leafs
           59 water leafs
            0 detail leafs
            0 detail illusionary leafs
            0 detail fence leafs
            0 illusionary visblocker leafs
         6131 leaffaces
         4525 nodefaces
---- Portalize ----
         1113 vis leafs
         1113 vis clusters
         3030 vis portals
---- Tjunc ----
         4603 world edges
        15941 edge points
         4788 edges added by tjunctions
            2 faces added by tjunctions
---- MakeFaceEdges ----
---- GrowRegions ----
Processing hull 1...
Processing hull 2...
*** WARNING 16: Texture __TB_empty not found
---- WriteBSPFile ----
Wrote commandcenter.bsp
         1718 planes            34360
         6171 vertexes          74052
         2023 nodes             48552
           77 texinfo            3080
         4626 faces             92520
         2609 clipnodes         20872
         1221 leafs             34188
         6232 marksurfaces      12464
        22712 surfedges         90848
        11365 edges             45460
           17 textures         257240
              lightdata             0
              visdata               0
              entdata           16307

1.164 seconds elapsed
Peak memory usage: 37487508 (35.8M)
