---- qbsp / ericw-tools v0.18.1 ----
Input file: commandcenter.map
Output file: commandcenter.bsp

---- LoadMapFile ----
        10280 faces
         1643 brushes
          204 entities
          102 unique texnames
          392 texinfo

Opened WAD: ../wads/prototype_1_2.wad
Opened WAD: ../wads/START.WAD
Opened WAD: ../wads/SiN.wad
Processing hull 0...
---- Brush_LoadEntity ----
         1639 brushes
         1402 planes
---- CSGFaces ----
        10205 brushfaces
         8822 csgfaces
         6254 mergedfaces
---- SolidBSP ----
         7828 split nodes
         2916 solid leafs
         4598 empty leafs
          315 water leafs
            0 detail leafs
            0 detail illusionary leafs
            0 detail fence leafs
            0 illusionary visblocker leafs
        15256 leaffaces
        13167 nodefaces
---- Portalize ----
         4913 vis leafs
         4913 vis clusters
        15170 vis portals
---- FillOutside ----
         1630 outleafs
---- MergeAll ----
         4851 mergefaces
---- SolidBSP ----
         2167 split nodes
          887 solid leafs
         1213 empty leafs
           68 water leafs
            0 detail leafs
            0 detail illusionary leafs
            0 detail fence leafs
            0 illusionary visblocker leafs
         7308 leaffaces
         5274 nodefaces
---- Portalize ----
         1281 vis leafs
         1281 vis clusters
         3375 vis portals
---- Tjunc ----
         5246 world edges
        18422 edge points
         5471 edges added by tjunctions
            2 faces added by tjunctions
---- MakeFaceEdges ----
---- GrowRegions ----
Processing hull 1...
Processing hull 2...
*** WARNING 16: Texture __TB_empty not found
---- WriteBSPFile ----
Wrote commandcenter.bsp
         1715 planes            34300
         7050 vertexes          84600
         2242 nodes             53808
          273 texinfo           10920
         5343 faces            106860
         2657 clipnodes         21256
         1357 leafs             37996
         7376 marksurfaces      14752
        26158 surfedges        104632
        13095 edges             52380
          102 textures        1042348
              lightdata             0
              visdata               0
              entdata           15872

1.486 seconds elapsed
Peak memory usage: 49931988 (47.6M)
