---- qbsp / ericw-tools v0.18.1 ----
Input file: commandcenter.map
Output file: commandcenter.bsp

---- LoadMapFile ----
         6834 faces
         1066 brushes
           21 entities
           16 unique texnames
          122 texinfo

Opened WAD: ../wads/prototype_1_2.wad
Opened WAD: ../wads/START.WAD
Processing hull 0...
---- Brush_LoadEntity ----
         1061 brushes
         1242 planes
---- CSGFaces ----
         6727 brushfaces
         6882 csgfaces
         5342 mergedfaces
---- SolidBSP ----
         6120 split nodes
         2291 solid leafs
         3717 empty leafs
          113 water leafs
            0 detail leafs
            0 detail illusionary leafs
            0 detail fence leafs
            0 illusionary visblocker leafs
        12139 leaffaces
        10328 nodefaces
---- Portalize ----
         3830 vis leafs
         3830 vis clusters
        11769 vis portals
---- FillOutside ----
         1495 outleafs
---- MergeAll ----
         4116 mergefaces
---- SolidBSP ----
         1909 split nodes
          773 solid leafs
         1069 empty leafs
           68 water leafs
            0 detail leafs
            0 detail illusionary leafs
            0 detail fence leafs
            0 illusionary visblocker leafs
         6150 leaffaces
         4492 nodefaces
---- Portalize ----
         1137 vis leafs
         1137 vis clusters
         3105 vis portals
---- Tjunc ----
         4567 world edges
        15829 edge points
         4779 edges added by tjunctions
            2 faces added by tjunctions
---- MakeFaceEdges ----
---- GrowRegions ----
Processing hull 1...
Processing hull 2...
*** WARNING 16: Texture __TB_empty not found
---- WriteBSPFile ----
Wrote commandcenter.bsp
         1722 planes            34440
         6133 vertexes          73596
         2016 nodes             48384
           77 texinfo            3080
         4593 faces             91860
         2660 clipnodes         21280
         1245 leafs             34860
         6251 marksurfaces      12502
        22586 surfedges         90344
        11302 edges             45208
           16 textures         251308
              lightdata             0
              visdata               0
              entdata            1834

1.146 seconds elapsed
Peak memory usage: 37854938 (36.1M)
