---- qbsp / ericw-tools v0.18.1 ----
Input file: Command_Center.map
Output file: Command_Center.bsp

---- LoadMapFile ----
         2421 faces
          402 brushes
           13 entities
           11 unique texnames
           49 texinfo

Opened WAD: ../wads/prototype_1_2.wad
Opened WAD: ../wads/START.WAD
Processing hull 0...
---- Brush_LoadEntity ----
          399 brushes
          375 planes
---- CSGFaces ----
         2403 brushfaces
         2171 csgfaces
         1663 mergedfaces
---- SolidBSP ----
         2020 split nodes
          871 solid leafs
         1147 empty leafs
            3 water leafs
            0 detail leafs
            0 detail illusionary leafs
            0 detail fence leafs
            0 illusionary visblocker leafs
         4085 leaffaces
         3655 nodefaces
---- Portalize ----
         1150 vis leafs
         1150 vis clusters
         3096 vis portals
---- FillOutside ----
          754 outleafs
---- MergeAll ----
          930 mergefaces
---- SolidBSP ----
          568 split nodes
          334 solid leafs
          231 empty leafs
            4 water leafs
            0 detail leafs
            0 detail illusionary leafs
            0 detail fence leafs
            0 illusionary visblocker leafs
         1606 leaffaces
         1293 nodefaces
---- Portalize ----
          235 vis leafs
          235 vis clusters
          500 vis portals
---- Tjunc ----
         1383 world edges
         4540 edge points
         1080 edges added by tjunctions
            0 faces added by tjunctions
---- MakeFaceEdges ----
---- GrowRegions ----
Processing hull 1...
*** WARNING 19: No entities in empty space -- no filling performed (hull 1)
Processing hull 2...
*** WARNING 19: No entities in empty space -- no filling performed (hull 2)
*** WARNING 16: Texture __TB_empty not found
---- WriteBSPFile ----
Wrote Command_Center.bsp
          692 planes            13840
         1773 vertexes          21276
          586 nodes             14064
           37 texinfo            1480
         1311 faces             26220
         4248 clipnodes         33984
          254 leafs              7112
         1624 marksurfaces       3248
         6290 surfedges         25160
         3146 edges             12584
           11 textures         206672
              lightdata             0
              visdata               0
              entdata            1011

0.396 seconds elapsed
Peak memory usage: 17605900 (16.8M)
