---- qbsp / ericw-tools v0.18.1 ----
Input file: Command_Center.map
Output file: Command_Center.bsp

---- LoadMapFile ----
         2415 faces
          401 brushes
           43 entities
           11 unique texnames
           49 texinfo

Opened WAD: ../wads/prototype_1_2.wad
Opened WAD: ../wads/START.WAD
Processing hull 0...
---- Brush_LoadEntity ----
          398 brushes
          375 planes
---- CSGFaces ----
         2397 brushfaces
         2162 csgfaces
         1658 mergedfaces
---- SolidBSP ----
         2018 split nodes
          870 solid leafs
         1146 empty leafs
            3 water leafs
            0 detail leafs
            0 detail illusionary leafs
            0 detail fence leafs
            0 illusionary visblocker leafs
         4076 leaffaces
         3642 nodefaces
---- Portalize ----
         1149 vis leafs
         1149 vis clusters
         3092 vis portals
---- FillOutside ----
          753 outleafs
---- MergeAll ----
          930 mergefaces
---- SolidBSP ----
          572 split nodes
          337 solid leafs
          232 empty leafs
            4 water leafs
            0 detail leafs
            0 detail illusionary leafs
            0 detail fence leafs
            0 illusionary visblocker leafs
         1596 leaffaces
         1295 nodefaces
---- Portalize ----
          236 vis leafs
          236 vis clusters
          507 vis portals
---- Tjunc ----
         1382 world edges
         4544 edge points
         1080 edges added by tjunctions
            0 faces added by tjunctions
---- MakeFaceEdges ----
---- GrowRegions ----
Processing hull 1...
*** WARNING 19: No entities in empty space -- no filling performed (hull 1)
Processing hull 2...
*** WARNING 19: No entities in empty space -- no filling performed (hull 2)
*** WARNING 16: Texture __TB_empty not found
---- WriteBSPFile ----
Wrote Command_Center.bsp
          692 planes            13840
         1774 vertexes          21288
          590 nodes             14160
           37 texinfo            1480
         1313 faces             26260
         4238 clipnodes         33904
          255 leafs              7140
         1614 marksurfaces       3228
         6296 surfedges         25184
         3149 edges             12596
           11 textures         206672
              lightdata             0
              visdata               0
              entdata            2740

0.400 seconds elapsed
Peak memory usage: 17575708 (16.8M)
