---- qbsp / ericw-tools v0.18.1 ----
Input file: commandcenter.map
Output file: commandcenter.bsp

---- LoadMapFile ----
         3290 faces
          499 brushes
           15 entities
           15 unique texnames
           95 texinfo

Opened WAD: ../wads/prototype_1_2.wad
Opened WAD: ../wads/START.WAD
Processing hull 0...
---- Brush_LoadEntity ----
          495 brushes
          725 planes
---- CSGFaces ----
         3208 brushfaces
         3379 csgfaces
         2763 mergedfaces
---- SolidBSP ----
         2776 split nodes
         1072 solid leafs
         1692 empty leafs
           13 water leafs
            0 detail leafs
            0 detail illusionary leafs
            0 detail fence leafs
            0 illusionary visblocker leafs
         5892 leaffaces
         4966 nodefaces
---- Portalize ----
         1705 vis leafs
         1705 vis clusters
         4754 vis portals
---- FillOutside ----
          897 outleafs
---- MergeAll ----
         1912 mergefaces
---- SolidBSP ----
          896 split nodes
          374 solid leafs
          519 empty leafs
            4 water leafs
            0 detail leafs
            0 detail illusionary leafs
            0 detail fence leafs
            0 illusionary visblocker leafs
         2869 leaffaces
         2159 nodefaces
---- Portalize ----
          523 vis leafs
          523 vis clusters
         1177 vis portals
---- Tjunc ----
         2242 world edges
         7682 edge points
         2224 edges added by tjunctions
            2 faces added by tjunctions
---- MakeFaceEdges ----
---- GrowRegions ----
Processing hull 1...
Processing hull 2...
*** WARNING 16: Texture __TB_empty not found
---- WriteBSPFile ----
Wrote commandcenter.bsp
         1021 planes            20420
         3056 vertexes          36672
          978 nodes             23472
           55 texinfo            2200
         2227 faces             44540
         1630 clipnodes         13040
          606 leafs             16968
         2937 marksurfaces       5874
        10854 surfedges         43416
         5442 edges             21768
           15 textures         229504
              lightdata             0
              visdata               0
              entdata            1265

0.593 seconds elapsed
Peak memory usage: 20807718 (19.8M)
