---- qbsp / ericw-tools v0.18.1 ----
Input file: commandcenter.map
Output file: commandcenter.bsp

---- LoadMapFile ----
        10304 faces
         1647 brushes
          200 entities
          121 unique texnames
          454 texinfo

Opened WAD: ../wads/prototype_1_2.wad
Opened WAD: ../wads/START.WAD
Opened WAD: ../wads/SiN.wad
Processing hull 0...
---- Brush_LoadEntity ----
         1643 brushes
         1403 planes
---- CSGFaces ----
        10229 brushfaces
         8835 csgfaces
         6342 mergedfaces
---- SolidBSP ----
         7862 split nodes
         2933 solid leafs
         4617 empty leafs
          313 water leafs
            0 detail leafs
            0 detail illusionary leafs
            0 detail fence leafs
            0 illusionary visblocker leafs
        15360 leaffaces
        13255 nodefaces
---- Portalize ----
         4930 vis leafs
         4930 vis clusters
        15193 vis portals
---- FillOutside ----
         1659 outleafs
---- MergeAll ----
         4833 mergefaces
---- SolidBSP ----
         2193 split nodes
          907 solid leafs
         1220 empty leafs
           67 water leafs
            0 detail leafs
            0 detail illusionary leafs
            0 detail fence leafs
            0 illusionary visblocker leafs
         7283 leaffaces
         5294 nodefaces
---- Portalize ----
         1287 vis leafs
         1287 vis clusters
         3407 vis portals
---- Tjunc ----
         5256 world edges
        18467 edge points
         5453 edges added by tjunctions
            2 faces added by tjunctions
---- MakeFaceEdges ----
---- GrowRegions ----
Processing hull 1...
Processing hull 2...
*** WARNING 16: Texture __TB_empty not found
---- WriteBSPFile ----
Wrote commandcenter.bsp
         1715 planes            34300
         7072 vertexes          84864
         2268 nodes             54432
          314 texinfo           12560
         5363 faces            107260
         2647 clipnodes         21176
         1363 leafs             38164
         7351 marksurfaces      14702
        26234 surfedges        104936
        13133 edges             52532
          121 textures        1140192
              lightdata             0
              visdata               0
              entdata           15472

1.647 seconds elapsed
Peak memory usage: 50168952 (47.8M)
