---- qbsp / ericw-tools v0.18.1 ----
Input file: Command_Center.map
Output file: Command_Center.bsp

---- LoadMapFile ----
         1660 faces
          276 brushes
            6 entities
            6 unique texnames
           27 texinfo

Opened WAD: ../wads/prototype_1_2.wad
Opened WAD: ../wads/START.WAD
Processing hull 0...
---- Brush_LoadEntity ----
          275 brushes
          277 planes
---- CSGFaces ----
         1654 brushfaces
         1402 csgfaces
         1019 mergedfaces
---- SolidBSP ----
         1217 split nodes
          500 solid leafs
          716 empty leafs
            2 water leafs
            0 detail leafs
            0 detail illusionary leafs
            0 detail fence leafs
            0 illusionary visblocker leafs
         2636 leaffaces
         2359 nodefaces
---- Portalize ----
          718 vis leafs
          718 vis clusters
         1972 vis portals
---- FillOutside ----
          462 outleafs
---- MergeAll ----
          661 mergefaces
---- SolidBSP ----
          413 split nodes
          245 solid leafs
          166 empty leafs
            3 water leafs
            0 detail leafs
            0 detail illusionary leafs
            0 detail fence leafs
            0 illusionary visblocker leafs
         1202 leaffaces
          996 nodefaces
---- Portalize ----
          169 vis leafs
          169 vis clusters
          377 vis portals
---- Tjunc ----
         1001 world edges
         3448 edge points
          818 edges added by tjunctions
            0 faces added by tjunctions
---- MakeFaceEdges ----
---- GrowRegions ----
Processing hull 1...
Processing hull 2...
*** WARNING 16: Texture __TB_empty not found
---- WriteBSPFile ----
Wrote Command_Center.bsp
          382 planes             7640
         1351 vertexes          16212
          419 nodes             10056
           22 texinfo             880
         1002 faces             20040
         1112 clipnodes          8896
          176 leafs              4928
         1208 marksurfaces       2416
         4808 surfedges         19232
         2405 edges              9620
            6 textures          56852
              lightdata             0
              visdata               0
              entdata             442

0.313 seconds elapsed
Peak memory usage: 11192916 (10.7M)
