---- qbsp / ericw-tools v0.18.1 ----
Input file: commandcenter.map
Output file: commandcenter.bsp

---- LoadMapFile ----
         2439 faces
          405 brushes
           43 entities
           11 unique texnames
           49 texinfo

Opened WAD: ../wads/prototype_1_2.wad
Opened WAD: ../wads/START.WAD
Processing hull 0...
---- Brush_LoadEntity ----
          402 brushes
          378 planes
---- CSGFaces ----
         2421 brushfaces
         2178 csgfaces
         1658 mergedfaces
---- SolidBSP ----
         2015 split nodes
          869 solid leafs
         1144 empty leafs
            3 water leafs
            0 detail leafs
            0 detail illusionary leafs
            0 detail fence leafs
            0 illusionary visblocker leafs
         4067 leaffaces
         3632 nodefaces
---- Portalize ----
         1147 vis leafs
         1147 vis clusters
         3086 vis portals
---- FillOutside ----
          752 outleafs
---- MergeAll ----
          930 mergefaces
---- SolidBSP ----
          572 split nodes
          337 solid leafs
          232 empty leafs
            4 water leafs
            0 detail leafs
            0 detail illusionary leafs
            0 detail fence leafs
            0 illusionary visblocker leafs
         1594 leaffaces
         1294 nodefaces
---- Portalize ----
          236 vis leafs
          236 vis clusters
          507 vis portals
---- Tjunc ----
         1381 world edges
         4536 edge points
         1074 edges added by tjunctions
            0 faces added by tjunctions
---- MakeFaceEdges ----
---- GrowRegions ----
Processing hull 1...
*** WARNING 19: No entities in empty space -- no filling performed (hull 1)
Processing hull 2...
*** WARNING 19: No entities in empty space -- no filling performed (hull 2)
*** WARNING 16: Texture __TB_empty not found
---- WriteBSPFile ----
Wrote commandcenter.bsp
          689 planes            13780
         1769 vertexes          21228
          590 nodes             14160
           37 texinfo            1480
         1312 faces             26240
         4233 clipnodes         33864
          255 leafs              7140
         1612 marksurfaces       3224
         6284 surfedges         25136
         3143 edges             12572
           11 textures         206672
              lightdata             0
              visdata               0
              entdata            2814

0.384 seconds elapsed
Peak memory usage: 17662672 (16.8M)
