---- qbsp / ericw-tools v0.18.1 ----
Input file: test_leak.map
Output file: test_leak.bsp

---- LoadMapFile ----
*** WARNING 06: No info_player_deathmatch entities in level
           18 faces
            3 brushes
            2 entities
            1 unique texnames
            5 texinfo

*** WARNING 01: No valid WAD filenames in worldmodel
Processing hull 0...
---- Brush_LoadEntity ----
            3 brushes
           11 planes
---- CSGFaces ----
           18 brushfaces
           19 csgfaces
           19 mergedfaces
---- SolidBSP ----
           24 split nodes
            5 solid leafs
           20 empty leafs
            0 water leafs
            0 detail leafs
            0 detail illusionary leafs
            0 detail fence leafs
            0 illusionary visblocker leafs
           42 leaffaces
           42 nodefaces
---- Portalize ----
           20 vis leafs
           20 vis clusters
           45 vis portals
---- FillOutside ----
*** WARNING 10: Reached occupant at (144 -144 40), no filling performed.
Leak file written to test_leak.pts
---- MakeFaceEdges ----
---- GrowRegions ----
Processing hull 1...
*** WARNING 19: No entities in empty space -- no filling performed (hull 1)
Processing hull 2...
*** WARNING 19: No entities in empty space -- no filling performed (hull 2)
*** WARNING 16: Texture __TB_empty not found
---- WriteBSPFile ----
Wrote test_leak.bsp
           26 planes              520
           49 vertexes            588
           24 nodes               576
            5 texinfo             200
           42 faces               840
           34 clipnodes           272
           21 leafs               588
           42 marksurfaces         84
          168 surfedges           672
           98 edges               392
            1 textures              8
              lightdata             0
              visdata               0
              entdata             112

0.099 seconds elapsed
Peak memory usage: 200136 (195.4k)
